Version 4
SHEET 1 880 680
WIRE 208 16 -80 16
WIRE 368 16 288 16
WIRE 368 64 368 16
WIRE 464 64 368 64
WIRE 208 96 176 96
WIRE 368 96 368 64
WIRE 368 96 288 96
WIRE 176 160 176 96
WIRE -80 192 -80 16
WIRE 176 256 176 240
FLAG -80 272 0
FLAG 176 256 0
SYMBOL voltage -80 176 R0
WINDOW 123 0 0 Left 2
WINDOW 39 0 0 Left 2
SYMATTR InstName V1
SYMATTR Value PULSE(0 1 0 1p 1p 0.5m 1m)
SYMBOL voltage 176 144 R0
WINDOW 123 0 0 Left 2
WINDOW 39 0 0 Left 2
SYMATTR InstName V2
SYMATTR Value SINE(0 1 5kHz)
SYMBOL res 304 0 R90
WINDOW 0 0 56 VBottom 2
WINDOW 3 32 56 VTop 2
SYMATTR InstName R1
SYMATTR Value 47.7k
SYMBOL res 304 80 R90
WINDOW 0 0 56 VBottom 2
WINDOW 3 32 56 VTop 2
SYMATTR InstName R2
SYMATTR Value 47.7k
TEXT -114 296 Left 2 !.tran 5m
