Version 4
SHEET 1 1112 824
WIRE -240 -160 -400 -160
WIRE 768 -160 -240 -160
WIRE -400 -64 -400 -160
WIRE -240 -16 -240 -160
WIRE -192 -16 -240 -16
WIRE 112 -16 64 -16
WIRE -400 80 -400 16
WIRE -400 80 -576 80
WIRE -256 80 -400 80
WIRE -256 128 -256 80
WIRE -64 144 -64 80
WIRE -400 160 -400 80
WIRE 112 160 112 -16
WIRE 432 160 112 160
WIRE -256 224 -256 208
WIRE -176 224 -256 224
WIRE 464 224 -96 224
WIRE -256 240 -256 224
WIRE -400 256 -400 240
WIRE 160 288 80 288
WIRE 432 288 432 160
WIRE 432 288 384 288
WIRE -400 352 -400 336
WIRE -160 352 -400 352
WIRE 160 352 -80 352
WIRE 384 352 368 352
WIRE -400 368 -400 352
WIRE -576 384 -576 80
WIRE 768 400 768 -160
WIRE 768 400 704 400
WIRE 160 416 128 416
WIRE 464 416 464 224
WIRE 464 416 384 416
WIRE 768 448 768 400
WIRE 112 480 112 160
WIRE 160 480 112 480
WIRE 416 480 384 480
WIRE -256 544 -256 320
WIRE 128 576 128 416
WIRE 560 576 128 576
WIRE -400 592 -400 448
WIRE 560 672 560 656
WIRE -576 736 -576 464
WIRE -400 736 -400 672
WIRE -400 736 -576 736
WIRE -256 736 -256 624
WIRE -256 736 -400 736
WIRE 80 736 80 288
WIRE 80 736 -256 736
WIRE 416 736 416 544
WIRE 416 736 80 736
WIRE 512 736 416 736
WIRE 768 736 768 528
WIRE 768 736 608 736
WIRE 80 784 80 736
FLAG 80 784 0
FLAG -64 144 0
SYMBOL res -416 576 R0
SYMATTR InstName R3
SYMATTR Value 8.2k
SYMBOL res -416 352 R0
SYMATTR InstName R2_2
SYMATTR Value 5k
SYMBOL res -416 144 R0
SYMATTR InstName R1
SYMATTR Value 33k
SYMBOL res -416 -80 R0
SYMATTR InstName R
SYMATTR Value 2
SYMATTR SpiceLine pwr=1
SYMBOL res -272 528 R0
SYMATTR InstName R6
SYMATTR Value 15k
SYMBOL res -272 224 R0
SYMATTR InstName R5_2
SYMATTR Value 5k
SYMBOL res -80 208 R90
WINDOW 0 0 56 VBottom 2
WINDOW 3 32 56 VTop 2
SYMATTR InstName R7
SYMATTR Value 100k
SYMBOL res -64 336 R90
WINDOW 0 0 56 VBottom 2
WINDOW 3 31 84 VTop 2
SYMATTR InstName R8
SYMATTR Value 470k
SYMBOL Misc\\NE555 272 384 R0
SYMATTR InstName U1
SYMBOL voltage 768 432 R0
WINDOW 123 0 0 Left 2
WINDOW 39 0 0 Left 2
SYMATTR InstName V1
SYMATTR Value 12
SYMBOL npn 608 672 R90
WINDOW 0 38 -48 VRight 2
WINDOW 3 96 -72 VRight 2
SYMATTR InstName VT1
SYMATTR Value BD139
SYMBOL cap 704 384 R90
WINDOW 0 0 32 VBottom 2
WINDOW 3 32 32 VTop 2
SYMATTR InstName C1
SYMATTR Value 1000mF
SYMATTR SpiceLine V=50
SYMBOL res 544 560 R0
SYMATTR InstName R9
SYMATTR Value 1k
SYMBOL cap 400 480 R0
SYMATTR InstName C2
SYMATTR Value 100n
SYMBOL Vreg\\7805 -64 -16 R0
SYMATTR InstName U3
SYMBOL res -592 368 R0
SYMATTR InstName Accum
SYMATTR Value 1
SYMBOL res -272 112 R0
SYMATTR InstName R5_1
SYMATTR Value 5k
SYMBOL res -416 240 R0
SYMATTR InstName R2_1
SYMATTR Value 5k
TEXT -594 808 Left 2 !.tran 100m
