Version 4
SHEET 1 1112 812
WIRE 80 -160 -400 -160
WIRE 1056 -160 80 -160
WIRE 80 0 80 -160
WIRE 160 0 80 0
WIRE 480 0 416 0
WIRE 288 128 288 96
WIRE 288 128 80 128
WIRE 80 160 80 128
WIRE 480 160 480 0
WIRE 480 160 240 160
WIRE 560 160 480 160
WIRE -400 208 -400 -160
WIRE 592 224 80 224
WIRE 288 288 208 288
WIRE 560 288 560 160
WIRE 560 288 512 288
WIRE -400 320 -400 288
WIRE 288 352 160 352
WIRE 512 352 496 352
WIRE 688 384 608 384
WIRE -400 400 -576 400
WIRE -256 400 -400 400
WIRE -32 400 -256 400
WIRE 80 400 80 224
WIRE 80 400 48 400
WIRE 1056 400 1056 -160
WIRE 1056 400 864 400
WIRE -256 416 -256 400
WIRE 288 416 256 416
WIRE 592 416 592 224
WIRE 592 416 512 416
WIRE -400 432 -400 400
WIRE 688 432 688 384
WIRE 1056 448 1056 400
WIRE -576 480 -576 400
WIRE 240 480 240 160
WIRE 288 480 240 480
WIRE 544 480 512 480
WIRE 80 512 -400 512
WIRE 160 512 160 352
WIRE -400 528 -400 512
WIRE -256 544 -256 496
WIRE 688 560 688 512
WIRE 256 576 256 416
WIRE 608 576 608 384
WIRE 608 576 256 576
WIRE -576 624 -576 560
WIRE -400 624 -400 608
WIRE -400 624 -576 624
WIRE -256 624 -400 624
WIRE 208 624 208 288
WIRE 208 624 -256 624
WIRE 544 624 544 544
WIRE 544 624 208 624
WIRE 640 624 544 624
WIRE 800 624 800 400
WIRE 800 624 736 624
WIRE 1056 624 1056 528
WIRE 1056 624 800 624
WIRE 208 720 208 624
FLAG 208 720 0
FLAG 80 160 0
SYMBOL res -416 512 R0
SYMATTR InstName R1
SYMATTR Value 8.2k
SYMBOL res -416 416 R0
SYMATTR InstName R2
SYMATTR Value 10k
SYMBOL res -416 304 R0
SYMATTR InstName R3
SYMATTR Value 33k
SYMBOL res -416 192 R0
SYMATTR InstName R4
SYMATTR Value 2
SYMATTR SpiceLine pwr=1
SYMBOL res -272 528 R0
SYMATTR InstName R5
SYMATTR Value 15k
SYMBOL res -272 400 R0
SYMATTR InstName R6
SYMATTR Value 10k
SYMBOL res 64 384 R90
WINDOW 0 0 56 VBottom 2
WINDOW 3 32 56 VTop 2
SYMATTR InstName R7
SYMATTR Value 100k
SYMBOL res 176 496 R90
WINDOW 0 0 56 VBottom 2
WINDOW 3 47 51 VTop 2
SYMATTR InstName R8
SYMATTR Value 470k
SYMBOL Misc\\NE555 400 384 R0
SYMATTR InstName U1
SYMBOL voltage 1056 432 R0
WINDOW 123 0 0 Left 2
WINDOW 39 0 0 Left 2
SYMATTR InstName V1
SYMATTR Value 12
SYMBOL npn 736 560 R90
SYMATTR InstName Q1
SYMBOL cap 864 384 R90
WINDOW 0 0 32 VBottom 2
WINDOW 3 32 32 VTop 2
SYMATTR InstName C1
SYMATTR Value 1000mf
SYMATTR SpiceLine V=50
SYMBOL res 672 416 R0
SYMATTR InstName R9
SYMATTR Value 1k
SYMBOL cap 528 480 R0
SYMATTR InstName C2
SYMATTR Value 100n
SYMBOL Vreg\\7805 288 0 R0
SYMATTR InstName U3
SYMBOL res -592 464 R0
SYMATTR InstName R10
SYMATTR Value 1
TEXT -624 744 Left 2 !.tran 200n
