Version 4
SHEET 1 880 680
WIRE -32 192 -32 176
FLAG -32 96 OUT
IOPIN -32 96 In
SYMBOL npn 16 192 R90
WINDOW 0 38 -48 VRight 2
WINDOW 3 96 -72 VRight 2
SYMATTR InstName VT1
SYMATTR Value BD139
SYMBOL res -48 80 R0
SYMATTR InstName R1
SYMATTR Value 1k
