Version 4
SHEET 1 1112 1524
WIRE 32 -160 -400 -160
WIRE 832 -160 32 -160
WIRE -400 -64 -400 -160
WIRE 32 -16 32 -160
WIRE 128 -16 32 -16
WIRE 464 -16 384 -16
WIRE 512 -16 464 -16
WIRE 608 -16 592 -16
WIRE 608 48 608 -16
WIRE 464 64 464 -16
WIRE -400 80 -400 16
WIRE -400 80 -672 80
WIRE -256 80 -400 80
WIRE -256 112 -256 80
WIRE -400 160 -400 80
WIRE 832 208 832 -160
WIRE -256 224 -256 192
WIRE -176 224 -256 224
WIRE -48 224 -96 224
WIRE -672 240 -672 80
WIRE -256 240 -256 224
WIRE 256 288 256 80
WIRE 400 288 256 288
WIRE -400 304 -400 240
WIRE -672 352 -672 304
WIRE -160 352 -368 352
WIRE -32 352 -80 352
WIRE -512 592 -576 592
WIRE -400 624 -400 400
WIRE -256 624 -256 320
WIRE -576 640 -576 592
WIRE -576 752 -576 720
WIRE -672 816 -672 432
WIRE -624 816 -672 816
WIRE -400 816 -400 704
WIRE -400 816 -528 816
WIRE -256 816 -256 704
WIRE -256 816 -400 816
WIRE 256 816 256 288
WIRE 256 816 -256 816
WIRE 832 816 832 288
WIRE 832 816 256 816
WIRE 256 896 256 816
FLAG 400 416 OUT
IOPIN 400 416 Out
FLAG 624 288 OUT_5V
IOPIN 624 288 In
FLAG 400 480 OUT_5V
IOPIN 400 480 In
FLAG 624 416 THRS
IOPIN 624 416 In
FLAG -48 224 THRS
IOPIN -48 224 Out
FLAG -32 352 TRIG
IOPIN -32 352 Out
FLAG 400 352 TRIG
IOPIN 400 352 In
FLAG 624 480 CV
IOPIN 624 480 In
FLAG -512 592 OUT
IOPIN -512 592 In
FLAG 464 64 OUT_5V
IOPIN 464 64 Out
FLAG 608 48 CV
IOPIN 608 48 Out
FLAG 256 896 0
SYMBOL res -416 608 R0
SYMATTR InstName R3
SYMATTR Value 8.2k
SYMBOL res -416 144 R0
SYMATTR InstName R1
SYMATTR Value 33k
SYMBOL res -416 -80 R0
SYMATTR InstName R
SYMATTR Value 2
SYMATTR SpiceLine pwr=1
SYMBOL res -272 608 R0
SYMATTR InstName R6
SYMATTR Value 16k
SYMBOL res -80 208 R90
WINDOW 0 0 56 VBottom 2
WINDOW 3 32 56 VTop 2
SYMATTR InstName R7
SYMATTR Value 100k
SYMBOL res -64 336 R90
WINDOW 0 0 56 VBottom 2
WINDOW 3 31 84 VTop 2
SYMATTR InstName R8
SYMATTR Value 470k
SYMBOL Misc\\NE555 512 384 R0
SYMATTR InstName U1
SYMBOL voltage 832 192 R0
WINDOW 123 0 0 Left 2
WINDOW 39 0 0 Left 2
SYMATTR InstName V1
SYMATTR Value 12
SYMBOL Vreg\\7805 256 -16 R0
SYMATTR InstName U3
SYMBOL EXTRA\\Misc\\pot -400 352 R180
SYMATTR InstName U4
SYMATTR Value2 T=.1
SYMBOL voltage -672 336 R0
WINDOW 3 37 52 Left 2
WINDOW 123 24 138 Left 2
WINDOW 39 18 97 Left 2
WINDOW 0 23 17 Left 2
SYMATTR Value 2.9375
SYMATTR SpiceLine Rser=0.0025
SYMATTR InstName V2
SYMBOL cap -688 240 R0
WINDOW 3 42 34 Left 2
WINDOW 39 27 65 Left 2
WINDOW 40 24 98 Left 2
SYMATTR Value 0.8m
SYMATTR SpiceLine Rser=0.0025
SYMATTR InstName C2
SYMBOL npn -528 752 R90
SYMATTR InstName Q1
SYMATTR Value BD139
SYMBOL res -592 624 R0
SYMATTR InstName R4
SYMATTR Value 1k
SYMBOL res 608 -32 R90
WINDOW 0 0 56 VBottom 2
WINDOW 3 32 56 VTop 2
SYMATTR InstName R5
SYMATTR Value 100
SYMBOL res -272 96 R0
SYMATTR InstName R2
SYMATTR Value {R}
SYMBOL res -272 224 R0
SYMATTR InstName R9
SYMATTR Value {10k-R}
TEXT -592 888 Left 2 !.tran 30us startup
TEXT -672 208 Bottom 3 ;BATTERY
TEXT -200 136 Left 2 !.param R=9k
RECTANGLE Normal -528 512 -784 160 2
