Version 4
SHEET 1 1952 1524
WIRE -160 -384 -224 -384
WIRE -224 -336 -224 -384
WIRE -224 -224 -224 -256
WIRE -272 -160 -400 -160
WIRE 32 -160 -176 -160
WIRE 832 -160 32 -160
WIRE -400 -64 -400 -160
WIRE 32 -16 32 -160
WIRE 128 -16 32 -16
WIRE 464 -16 384 -16
WIRE 512 -16 464 -16
WIRE 464 64 464 -16
WIRE -400 80 -400 16
WIRE -400 80 -672 80
WIRE -256 80 -400 80
WIRE -400 208 -400 80
WIRE -256 208 -256 80
WIRE 832 208 832 -160
WIRE -672 240 -672 80
WIRE 256 288 256 80
WIRE 400 288 256 288
WIRE -672 352 -672 304
WIRE -256 352 -256 288
WIRE -64 352 -256 352
WIRE 64 352 16 352
WIRE -400 480 -400 288
WIRE -48 480 -400 480
WIRE 80 480 32 480
WIRE -400 624 -400 480
WIRE -256 624 -256 352
WIRE -672 816 -672 432
WIRE -400 816 -400 704
WIRE -400 816 -672 816
WIRE -256 816 -256 704
WIRE -256 816 -400 816
WIRE 256 816 256 288
WIRE 256 816 -256 816
WIRE 832 816 832 288
WIRE 832 816 256 816
WIRE 256 896 256 816
FLAG 400 416 OUT
IOPIN 400 416 Out
FLAG 624 288 OUT_5V
IOPIN 624 288 In
FLAG 400 480 OUT_5V
IOPIN 400 480 In
FLAG 624 416 THRS
IOPIN 624 416 In
FLAG 64 352 THRS
IOPIN 64 352 Out
FLAG 80 480 TRIG
IOPIN 80 480 Out
FLAG 400 352 TRIG
IOPIN 400 352 In
FLAG 624 480 CV
IOPIN 624 480 In
FLAG 464 64 OUT_5V
IOPIN 464 64 Out
FLAG 256 896 0
FLAG -160 -384 OUT
IOPIN -160 -384 In
SYMBOL res -416 -80 R0
SYMATTR InstName R
SYMATTR Value 9.36
SYMATTR SpiceLine pwr=1
SYMBOL res 32 336 R90
WINDOW 0 0 56 VBottom 2
WINDOW 3 32 56 VTop 2
SYMATTR InstName R7
SYMATTR Value 100k
SYMBOL res 48 464 R90
WINDOW 0 0 56 VBottom 2
WINDOW 3 31 84 VTop 2
SYMATTR InstName R8
SYMATTR Value 470k
SYMBOL Misc\\NE555 512 384 R0
SYMATTR InstName U1
SYMBOL voltage 832 192 R0
WINDOW 123 0 0 Left 2
WINDOW 39 0 0 Left 2
SYMATTR InstName V1
SYMATTR Value 12
SYMBOL Vreg\\7805 256 -16 R0
SYMATTR InstName U3
SYMBOL voltage -672 336 R0
WINDOW 3 37 52 Left 2
WINDOW 123 24 138 Left 2
WINDOW 39 18 97 Left 2
WINDOW 0 23 17 Left 2
SYMATTR Value 2.9375
SYMATTR SpiceLine Rser=0.0025
SYMATTR InstName V2
SYMBOL cap -688 240 R0
WINDOW 3 42 34 Left 2
WINDOW 39 27 65 Left 2
WINDOW 40 24 98 Left 2
SYMATTR Value 0.8m
SYMATTR SpiceLine Rser=0.0025
SYMATTR InstName C2
SYMBOL npn -176 -224 R90
SYMATTR InstName Q1
SYMATTR Value BD139
SYMBOL res -240 -352 R0
SYMATTR InstName R4
SYMATTR Value 313
SYMBOL res -416 608 R0
SYMATTR InstName R1
SYMATTR Value 5.435k
SYMBOL res -272 608 R0
SYMATTR InstName R2
SYMATTR Value 19.231k
SYMBOL res -416 192 R0
SYMATTR InstName R3
SYMATTR Value 5k
SYMBOL res -272 192 R0
SYMATTR InstName R5
SYMATTR Value 5k
TEXT -592 888 Left 2 !.tran 10000ms startup
TEXT -672 208 Bottom 3 ;BATTERY
RECTANGLE Normal -528 512 -784 160 2
