Version 4
SHEET 1 880 680
WIRE 16 144 -64 144
WIRE 96 144 16 144
WIRE 416 144 352 144
WIRE 528 144 416 144
WIRE 624 144 528 144
WIRE 416 176 416 144
WIRE 16 256 16 144
WIRE 528 256 528 144
WIRE -64 272 -64 144
WIRE 224 288 224 240
WIRE 416 288 416 256
WIRE 416 288 224 288
WIRE 416 304 416 288
WIRE -64 416 -64 304
WIRE 16 416 16 320
WIRE 16 416 -64 416
WIRE 416 416 416 384
WIRE 416 416 16 416
WIRE 528 416 528 320
WIRE 528 416 416 416
WIRE 608 416 528 416
WIRE 416 480 416 416
FLAG 416 480 0
SYMBOL Vreg\\7805 224 144 R0
SYMATTR InstName U1
SYMBOL res 400 160 R0
SYMATTR InstName R1
SYMATTR Value 1.2k
SYMBOL MiniSyms4\\voltage- -64 288 R0
WINDOW 123 0 0 Left 2
WINDOW 39 0 0 Left 2
SYMATTR InstName V1
SYMATTR Value 10
SYMBOL res 400 288 R0
SYMATTR InstName R2
SYMATTR Value 330
SYMBOL polcap 0 256 R0
SYMATTR InstName C1
SYMATTR Value 0.33µF
SYMBOL polcap 512 256 R0
SYMATTR InstName C2
SYMATTR Value 0.1µF
TEXT -80 504 Left 2 !.tran 1ms
