Version 4
SHEET 1 880 680
WIRE -80 80 -112 80
WIRE 240 80 176 80
WIRE 304 80 240 80
WIRE 240 112 240 80
WIRE 48 224 48 176
WIRE 240 224 240 192
WIRE 240 224 48 224
WIRE 240 240 240 224
WIRE 240 352 240 320
FLAG 304 80 CV
IOPIN 304 80 Out
FLAG 240 352 0
SYMBOL EXTRA\\VolReg\\LM317-1 48 80 R0
SYMATTR InstName U1
SYMBOL res 224 96 R0
SYMATTR InstName R1
SYMATTR Value 2k
SYMBOL res 224 224 R0
SYMATTR InstName R2
SYMATTR Value 902
