Version 4
SHEET 1 2352 1524
WIRE 192 -224 192 -336
WIRE -400 -160 -400 -208
WIRE 144 -160 -400 -160
WIRE 352 -160 240 -160
WIRE 544 -160 432 -160
WIRE 1456 -160 544 -160
WIRE 544 -16 544 -160
WIRE 624 -16 544 -16
WIRE 944 -16 880 -16
WIRE 1056 -16 944 -16
WIRE 1088 -16 1056 -16
WIRE 944 16 944 -16
WIRE -400 80 -400 -160
WIRE -400 80 -672 80
WIRE -256 80 -400 80
WIRE 544 96 544 -16
WIRE 1056 96 1056 -16
WIRE -256 112 -256 80
WIRE 752 128 752 80
WIRE 944 128 944 96
WIRE 944 128 752 128
WIRE 944 144 944 128
WIRE -400 224 -400 80
WIRE -672 240 -672 80
WIRE 544 256 544 160
WIRE 752 256 544 256
WIRE 944 256 944 224
WIRE 944 256 752 256
WIRE 1056 256 1056 160
WIRE 1056 256 944 256
WIRE 1456 320 1456 -160
WIRE 1552 320 1456 320
WIRE 752 336 752 256
WIRE 896 336 752 336
WIRE -672 352 -672 304
WIRE -400 352 -400 304
WIRE -160 352 -400 352
WIRE -32 352 -80 352
WIRE -400 384 -400 352
WIRE -256 432 -256 192
WIRE -176 432 -256 432
WIRE -48 432 -96 432
WIRE 1456 432 1456 320
WIRE 1296 528 1120 528
WIRE -256 576 -256 432
WIRE -672 704 -672 432
WIRE -400 704 -400 464
WIRE -400 704 -672 704
WIRE -256 704 -256 656
WIRE -256 704 -400 704
WIRE 752 704 752 336
WIRE 752 704 -256 704
WIRE 1456 704 1456 464
WIRE 1456 704 752 704
WIRE 752 784 752 704
FLAG 896 464 OUT
IOPIN 896 464 Out
FLAG 1120 464 THRS
IOPIN 1120 464 In
FLAG -48 432 THRS
IOPIN -48 432 Out
FLAG -32 352 TRIG
IOPIN -32 352 Out
FLAG 896 400 TRIG
IOPIN 896 400 In
FLAG 752 784 0
FLAG 192 -336 OUT
IOPIN 192 -336 In
FLAG 1552 320 Vcc
IOPIN 1552 320 Out
FLAG 1296 528 CV
IOPIN 1296 528 In
FLAG 1088 -16 OUT_7805
IOPIN 1088 -16 Out
FLAG 1120 336 OUT_7805
IOPIN 1120 336 In
FLAG -400 80 battery
IOPIN -400 80 Out
FLAG 896 528 OUT_7805
IOPIN 896 528 In
SYMBOL res -416 208 R0
SYMATTR InstName R3
SYMATTR Value 7970
SYMBOL res 336 -144 R270
WINDOW 0 32 56 VTop 2
WINDOW 3 0 56 VBottom 2
SYMATTR InstName R
SYMATTR Value 15.8
SYMATTR SpiceLine pwr=15
SYMBOL res -272 560 R0
SYMATTR InstName R6
SYMATTR Value 32300
SYMBOL res -80 416 R90
WINDOW 0 0 56 VBottom 2
WINDOW 3 32 56 VTop 2
SYMATTR InstName R7
SYMATTR Value 100k
SYMBOL res -64 336 R90
WINDOW 0 0 56 VBottom 2
WINDOW 3 31 84 VTop 2
SYMATTR InstName R8
SYMATTR Value 470k
SYMBOL Misc\\NE555 1008 432 R0
SYMATTR InstName U1
SYMBOL voltage -672 336 R0
WINDOW 3 37 52 Left 2
WINDOW 123 24 138 Left 2
WINDOW 39 18 97 Left 2
WINDOW 0 23 17 Left 2
SYMATTR Value 3.91
SYMATTR SpiceLine Rser=0.0025
SYMATTR InstName V2
SYMBOL cap -688 240 R0
WINDOW 3 42 34 Left 2
WINDOW 39 27 65 Left 2
WINDOW 40 24 98 Left 2
SYMATTR Value 0.8m
SYMATTR SpiceLine Rser=0.0025
SYMATTR InstName C2
SYMBOL res -416 368 R0
SYMATTR InstName R1
SYMATTR Value 7590
SYMBOL res -272 96 R0
SYMATTR InstName R4
SYMATTR Value 1615
SYMBOL MiniSyms4\\voltage- 1456 448 R0
WINDOW 123 0 0 Left 2
WINDOW 39 0 0 Left 2
SYMATTR InstName V1
SYMATTR Value 10
SYMBOL Vreg\\7805 752 -16 R0
SYMATTR InstName U3
SYMBOL res 928 0 R0
SYMATTR InstName R5
SYMATTR Value 1000
SYMBOL res 928 128 R0
SYMATTR InstName R9
SYMATTR Value 100
SYMBOL polcap 528 96 R0
SYMATTR InstName C1
SYMATTR Value 0.33µF
SYMBOL polcap 1040 96 R0
SYMATTR InstName C3
SYMATTR Value 0.1µF
SYMBOL npn 240 -224 R90
SYMATTR InstName Q2
SYMATTR Value BD139
TEXT -592 776 Left 2 !.tran 10ms startup
TEXT -672 208 Bottom 3 ;BATTERY
RECTANGLE Normal -528 512 -784 160 2
