Version 4
SHEET 1 1428 680
WIRE -208 -288 -288 -288
WIRE -144 -288 -208 -288
WIRE 240 -288 -144 -288
WIRE 400 -288 240 -288
WIRE 544 -288 480 -288
WIRE 656 -288 544 -288
WIRE 896 -288 752 -288
WIRE 1056 -288 896 -288
WIRE 1280 -288 1056 -288
WIRE 544 -272 544 -288
WIRE 240 -224 240 -288
WIRE -144 -208 -144 -288
WIRE 544 -176 544 -208
WIRE 464 -144 416 -144
WIRE 592 -144 464 -144
WIRE 704 -144 704 -224
WIRE 704 -144 672 -144
WIRE 896 -128 896 -288
WIRE 1056 -128 1056 -288
WIRE 1280 -48 1280 -288
WIRE -208 -32 -208 -288
WIRE -288 -16 -288 -288
WIRE 80 -16 -16 -16
WIRE 896 0 896 -48
WIRE -144 48 -144 -128
WIRE -112 48 -144 48
WIRE 304 48 288 48
WIRE 864 48 800 48
WIRE 1280 64 1280 16
WIRE 1056 80 1056 -48
WIRE 464 112 464 -144
WIRE 656 128 592 128
WIRE 1024 128 656 128
WIRE -144 176 -144 48
WIRE 896 192 896 96
WIRE 656 208 656 128
WIRE 464 224 464 192
WIRE -288 336 -288 32
WIRE -208 336 -208 32
WIRE -208 336 -288 336
WIRE -144 336 -144 240
WIRE -144 336 -208 336
WIRE -16 336 -16 -16
WIRE -16 336 -144 336
WIRE 464 336 464 288
WIRE 464 336 -16 336
WIRE 656 336 656 272
WIRE 656 336 464 336
WIRE 896 336 896 272
WIRE 896 336 656 336
WIRE 1056 336 1056 176
WIRE 1056 336 896 336
WIRE 1280 336 1280 144
WIRE 1280 336 1056 336
WIRE -144 384 -144 336
FLAG 544 -176 0
FLAG -144 384 0
FLAG 80 112 OUT
IOPIN 80 112 Out
FLAG 304 -16 VCC
IOPIN 304 -16 In
FLAG 80 176 VCC
IOPIN 80 176 In
FLAG 304 112 THRS
IOPIN 304 112 In
FLAG 80 48 TRIG
IOPIN 80 48 In
FLAG 304 176 CV
IOPIN 304 176 In
FLAG 240 -224 VCC
IOPIN 240 -224 Out
FLAG -112 48 CV
IOPIN -112 48 Out
FLAG 800 48 THRS
IOPIN 800 48 Out
FLAG 592 128 TRIG
IOPIN 592 128 Out
FLAG 416 -144 OUT
IOPIN 416 -144 Out
SYMBOL MiniSyms4\\battery- -288 16 R0
WINDOW 123 0 0 Left 2
WINDOW 39 0 0 Left 2
SYMATTR Value 12
SYMATTR InstName V1
SYMBOL npn 656 -224 R270
SYMATTR InstName Q2
SYMATTR Value 2N4275
SYMBOL LED 448 224 R0
SYMATTR InstName LED1
SYMBOL cap 640 208 R0
SYMATTR InstName C1
SYMATTR Value 0.001µ
SYMBOL cap 528 -272 R0
SYMATTR InstName C2
SYMATTR Value 0.01µ
SYMBOL res -160 -224 R0
SYMATTR InstName R1
SYMATTR Value 390
SYMBOL res 448 96 R0
SYMATTR InstName R2
SYMATTR Value 680
SYMBOL res 688 -160 R90
WINDOW 0 0 56 VBottom 2
WINDOW 3 32 56 VTop 2
SYMATTR InstName R3
SYMATTR Value 39
SYMATTR SpiceLine pwr=1
SYMBOL res 912 -32 R180
WINDOW 0 36 76 Left 2
WINDOW 3 36 40 Left 2
SYMATTR InstName R4
SYMATTR Value 27k
SYMBOL res 1072 -32 R180
WINDOW 0 36 76 Left 2
WINDOW 3 36 40 Left 2
SYMATTR InstName R5
SYMATTR Value 47k
SYMBOL res 912 288 R180
WINDOW 0 36 76 Left 2
WINDOW 3 36 40 Left 2
SYMATTR InstName R6
SYMATTR Value 3.3k
SYMBOL res 384 -272 R270
WINDOW 0 32 56 VTop 2
WINDOW 3 0 56 VBottom 2
SYMATTR InstName R7
SYMATTR Value 100
SYMATTR SpiceLine pwr=1
SYMBOL polcap -224 -32 R0
SYMATTR InstName C3
SYMATTR Value 4.7µ
SYMATTR SpiceLine V=25
SYMBOL EXTRA\\Misc\\pot 896 48 R0
SYMATTR InstName VR1
SYMATTR Value R=20k
SYMATTR Value2 T=.77
SYMBOL EXTRA\\Misc\\pot 1056 128 R0
SYMATTR InstName VR2
SYMATTR Value R=20k
SYMATTR Value2 T=.9
SYMBOL voltage 1280 48 R0
WINDOW 3 37 52 Left 2
WINDOW 123 24 138 Left 2
WINDOW 39 18 97 Left 2
WINDOW 0 23 17 Left 2
SYMATTR Value 2.9375
SYMATTR SpiceLine Rser=.0025
SYMATTR InstName V2
SYMBOL cap 1264 -48 R0
WINDOW 3 42 34 Left 2
WINDOW 39 27 65 Left 2
WINDOW 40 24 98 Left 2
SYMATTR Value 0.8m
SYMATTR SpiceLine Rser=.0025
SYMATTR InstName C4
SYMBOL zener -128 240 R180
WINDOW 0 24 64 Left 2
WINDOW 3 -124 -5 Left 2
SYMATTR InstName ZD1
SYMATTR Value BZX384B5V6
SYMATTR Description Diode
SYMATTR Type diode
SYMBOL Misc\\NE555 192 80 R0
SYMATTR InstName U4
TEXT 1280 -80 Bottom 3 ;BATTERY
TEXT -376 368 Left 2 !.tran 100ms startup
RECTANGLE Normal 1424 224 1168 -128 2
