Version 4
SHEET 1 880 680
WIRE 656 128 576 128
WIRE 752 128 688 128
WIRE -288 192 -352 192
WIRE -176 192 -256 192
WIRE 112 256 48 256
WIRE 672 256 592 256
WIRE 768 256 704 256
WIRE 384 320 336 320
FLAG 752 128 0
FLAG 336 128 Vcc
IOPIN 336 128 In
FLAG 112 320 Vcc
IOPIN 112 320 In
FLAG 768 256 0
FLAG 112 128 0
FLAG 112 192 TRIG
IOPIN 112 192 In
FLAG 336 256 THRS
IOPIN 336 256 In
FLAG 576 128 Vcc
IOPIN 576 128 Out
FLAG 592 256 THRS
IOPIN 592 256 Out
FLAG -352 192 0
FLAG -176 192 TRIG
IOPIN -176 192 Out
SYMBOL SBORKA\\TIMER\\555 224 224 R0
SYMATTR InstName U1
SYMBOL MiniSyms4\\voltage- 672 128 R270
WINDOW 123 0 0 Left 2
WINDOW 39 0 0 Left 2
SYMATTR InstName Vcc
SYMATTR Value 5
SYMBOL MiniSyms4\\voltage- 688 256 R270
WINDOW 123 0 0 Left 2
WINDOW 39 0 0 Left 2
SYMATTR InstName V1
SYMATTR Value 4
SYMBOL MiniSyms4\\voltage- -272 192 R90
WINDOW 123 0 0 Left 2
WINDOW 39 0 0 Left 2
SYMATTR InstName V2
SYMATTR Value 1.5
TEXT -372 396 Left 2 !.tran 100ms
