Version 4
SHEET 1 880 680
WIRE 112 64 -160 64
WIRE 384 64 112 64
WIRE 112 112 112 64
WIRE -160 128 -160 64
WIRE 384 160 144 160
WIRE -160 272 -160 176
WIRE 112 272 112 208
WIRE 112 272 -160 272
WIRE 384 272 112 272
WIRE -160 336 -160 272
FLAG -160 336 0
SYMBOL MiniSyms4\\battery- -160 160 R0
WINDOW 123 0 0 Left 2
WINDOW 39 0 0 Left 2
SYMATTR Value 10
SYMATTR InstName V1
SYMBOL EXTRA\\Misc\\pot 112 160 R180
SYMATTR InstName U1
TEXT -4 278 Left 2 !.tran 100m
