Version 4
SHEET 1 1072 680
WIRE 672 96 592 96
WIRE 800 96 752 96
WIRE 592 112 592 96
WIRE 800 112 800 96
WIRE 800 192 800 176
WIRE 800 192 592 192
WIRE 800 272 800 192
FLAG 800 272 0
SYMBOL voltage 592 96 R0
WINDOW 123 24 124 Left 2
WINDOW 39 0 0 Left 2
SYMATTR Value2 AC 1
SYMATTR InstName V2
SYMATTR Value PULSE(0 1 0 1p 1p 0.15m 0.3m 0)
SYMBOL res 768 80 R90
WINDOW 0 0 56 VBottom 2
WINDOW 3 32 56 VTop 2
SYMATTR InstName R2
SYMATTR Value 3.9k
SYMBOL cap 784 112 R0
SYMATTR InstName C1
SYMATTR Value 3.22n
TEXT 558 296 Left 2 !.ac oct 1000 100 10Meg
