Version 4
SHEET 1 880 680
WIRE 32 64 -224 64
WIRE 512 96 384 96
WIRE 384 144 384 96
WIRE 512 144 512 96
WIRE -224 160 -224 64
WIRE 384 256 384 208
WIRE 512 256 512 224
WIRE 512 256 384 256
WIRE 384 288 384 256
FLAG 384 288 0
SYMBOL voltage -224 144 R0
WINDOW 123 0 0 Left 2
WINDOW 39 0 0 Left 2
SYMATTR InstName V1
SYMATTR Value SINE(0 5 50)
SYMBOL diode 192 64 R0
SYMATTR InstName D1
SYMATTR Value 1N914
SYMBOL res 496 128 R0
SYMATTR InstName R1
SYMATTR Value 4,7k
SYMBOL polcap 368 144 R0
SYMATTR InstName C2
SYMATTR Value 10µ
SYMBOL diode 48 128 R180
WINDOW 0 24 64 Left 2
WINDOW 3 24 0 Left 2
SYMATTR InstName D2
SYMATTR Value 1N914
SYMBOL diode 224 288 R180
WINDOW 0 24 64 Left 2
WINDOW 3 24 0 Left 2
SYMATTR InstName D3
SYMATTR Value 1N914
SYMBOL diode 16 224 R0
SYMATTR InstName D4
SYMATTR Value 1N914
