Version 4
SHEET 1 1952 1524
WIRE -160 -384 -224 -384
WIRE -224 -336 -224 -384
WIRE -224 -224 -224 -256
WIRE -272 -160 -400 -160
WIRE -128 -160 -176 -160
WIRE 32 -160 -48 -160
WIRE 832 -160 32 -160
WIRE -400 -64 -400 -160
WIRE 32 -16 32 -160
WIRE 128 -16 32 -16
WIRE 464 -16 384 -16
WIRE 512 -16 464 -16
WIRE 464 64 464 -16
WIRE -400 80 -400 16
WIRE -400 80 -672 80
WIRE -256 80 -400 80
WIRE -400 160 -400 80
WIRE -256 176 -256 80
WIRE 832 208 832 -160
WIRE -176 224 -224 224
WIRE -48 224 -96 224
WIRE 256 288 256 80
WIRE 400 288 256 288
WIRE -400 304 -400 240
WIRE -160 352 -368 352
WIRE -32 352 -80 352
WIRE -672 368 -672 80
WIRE -400 624 -400 400
WIRE -256 624 -256 272
WIRE -672 816 -672 432
WIRE -400 816 -400 704
WIRE -400 816 -672 816
WIRE -256 816 -256 704
WIRE -256 816 -400 816
WIRE 256 816 256 288
WIRE 256 816 -256 816
WIRE 832 816 832 288
WIRE 832 816 256 816
WIRE 256 896 256 816
FLAG 400 416 OUT
IOPIN 400 416 Out
FLAG 624 288 OUT_5V
IOPIN 624 288 In
FLAG 400 480 OUT_5V
IOPIN 400 480 In
FLAG 624 416 THRS
IOPIN 624 416 In
FLAG -48 224 THRS
IOPIN -48 224 Out
FLAG -32 352 TRIG
IOPIN -32 352 Out
FLAG 400 352 TRIG
IOPIN 400 352 In
FLAG 624 480 CV
IOPIN 624 480 In
FLAG 464 64 OUT_5V
IOPIN 464 64 Out
FLAG 256 896 0
FLAG -160 -384 OUT
IOPIN -160 -384 In
SYMBOL res -416 608 R0
SYMATTR InstName R3
SYMATTR Value 33k
SYMBOL res -416 144 R0
SYMATTR InstName R1
SYMATTR Value 33k
SYMBOL res -416 -80 R0
SYMATTR InstName R
SYMATTR Value 2
SYMATTR SpiceLine pwr=1
SYMBOL res -272 608 R0
SYMATTR InstName R6
SYMATTR Value 15k
SYMBOL res -80 208 R90
WINDOW 0 0 56 VBottom 2
WINDOW 3 32 56 VTop 2
SYMATTR InstName R7
SYMATTR Value 100k
SYMBOL res -64 336 R90
WINDOW 0 0 56 VBottom 2
WINDOW 3 31 84 VTop 2
SYMATTR InstName R8
SYMATTR Value 470k
SYMBOL Misc\\NE555 512 384 R0
SYMATTR InstName U1
SYMBOL voltage 832 192 R0
WINDOW 123 0 0 Left 2
WINDOW 39 0 0 Left 2
SYMATTR InstName V1
SYMATTR Value 12
SYMBOL Vreg\\7805 256 -16 R0
SYMATTR InstName U3
SYMBOL EXTRA\\Misc\\pot -400 352 R180
SYMATTR InstName U4
SYMATTR Value2 T=.343
SYMBOL npn -176 -224 R90
SYMATTR InstName Q1
SYMATTR Value BD139
SYMBOL res -240 -352 R0
SYMATTR InstName R4
SYMATTR Value 100
SYMBOL res -32 -176 R90
WINDOW 0 0 56 VBottom 2
WINDOW 3 32 56 VTop 2
SYMATTR InstName R10
SYMATTR Value 500
SYMBOL EXTRA\\Misc\\pot -256 224 R180
SYMATTR InstName U2
SYMATTR Value2 T=.516
SYMBOL battery-cell -672 400 R0
SYMATTR InstName U5
SYMATTR Value2 C=1 SOC=1 RS=1n
TEXT -592 888 Left 2 !.tran 3.6Ks startup
